16
Benzenesulfonic acid
C         -0.29148        0.25174       -0.24839
S         -1.50216        1.49142       -0.60955
O         -1.95655        1.91480        0.95827
O         -2.66438        0.92538       -1.22829
O         -0.90423        2.68771       -1.14614
C          1.06560        0.57710       -0.16425
C         -0.67370       -1.07717       -0.04292
H         -2.03329        2.84253        1.13286
C          2.01466       -0.39836        0.11592
C          0.27360       -2.05459        0.23837
C          1.62024       -1.71680        0.31913
H          1.38780        1.61476       -0.32820
H         -1.73493       -1.35424       -0.11019
H          3.07417       -0.12687        0.17614
H         -0.04302       -3.09132        0.39608
H          2.36768       -2.48609        0.54115
