12
Bromobenzene
C         -0.15711        1.36413        0.00000
C          1.14103        0.85899        0.00000
C          1.35150       -0.51804        0.00000
C          0.27459       -1.40153        0.00000
C         -1.02863       -0.90955        0.00000
C         -1.20077        0.46029        0.00000
H         -0.35751        2.44002        0.00000
H          1.99430        1.54495        0.00000
H          2.37404       -0.91010        0.00000
H          0.45067       -2.48206        0.00000
H         -1.89678       -1.57586        0.00000
Br        -2.94533        1.12875        0.00000
