12 
0 1
C     -1.855481      0.017065     -0.278648
C     -0.713021     -0.293725      0.337281
H     -2.731447     -0.629718     -0.219393
H     -1.954028      0.934329     -0.864141
H     -0.659687     -1.226746      0.910399
C      0.540594      0.523485      0.303204
H      0.363877      1.445490     -0.270577
H      0.795730      0.832697      1.330552
C      1.720845     -0.246046     -0.289254
H      1.515466     -0.535941     -1.328765
H      2.635584      0.361930     -0.276606
H      1.919578     -1.164749      0.281238